[TITLE]
;;Project Title/Notes
Example 1 of Extran Manual

[OPTIONS]
;;Option             Value
FLOW_UNITS           CFS
INFILTRATION         HORTON
FLOW_ROUTING         DYNWAVE
LINK_OFFSETS         DEPTH
MIN_SLOPE            0
ALLOW_PONDING        NO
SKIP_STEADY_STATE    NO

START_DATE           01/01/2002
START_TIME           00:00:00
REPORT_START_DATE    01/01/2002
REPORT_START_TIME    00:00:00
END_DATE             01/01/2002
END_TIME             08:00:00
SWEEP_START          1/1
SWEEP_END            12/31
DRY_DAYS             0
REPORT_STEP          00:15:00
WET_STEP             00:15:00
DRY_STEP             01:00:00
ROUTING_STEP         20
RULE_STEP            00:00:00

INERTIAL_DAMPING     PARTIAL
NORMAL_FLOW_LIMITED  BOTH
FORCE_MAIN_EQUATION  H-W
VARIABLE_STEP        0
LENGTHENING_STEP     0
MIN_SURFAREA         0
MAX_TRIALS           8
HEAD_TOLERANCE       0
SYS_FLOW_TOL         5
LAT_FLOW_TOL         5
MINIMUM_STEP         0.5
THREADS              14

[EVAPORATION]
;;Data Source    Parameters
;;-------------- ----------------
CONSTANT         0.0
DRY_ONLY         NO

[JUNCTIONS]
;;Name           Elevation  MaxDepth   InitDepth  SurDepth   Aponded   
;;-------------- ---------- ---------- ---------- ---------- ----------
10309            101.6      9.4        0          0          0         
15009            111.5      13.5       0          0          0         
16009            102        18         0          0          0         
16109            102.8      22.2       0          0          0         
80408            124.6      13.4       0          0          0         
80608            118.3      16.7       0          0          0         
81009            128.2      8.8        0          0          0         
81309            117.5      12.5       0          0          0         
82309            112.3      42.7       0          0          0         

[OUTFALLS]
;;Name           Elevation  Type       Stage Data       Gated    Route To        
;;-------------- ---------- ---------- ---------------- -------- ----------------
10208            89.9       FREE                        NO                       

[CONDUITS]
;;Name           From Node        To Node          Length     Roughness  InOffset   OutOffset  InitFlow   MaxFlow   
;;-------------- ---------------- ---------------- ---------- ---------- ---------- ---------- ---------- ----------
1570             15009            16009            5000       0.0154     0          0          0          0         
1602             82309            16109            400        0.01       0          0          0          0         
1630             16009            10309            400        0.01       0          0          0          0         
8040             80408            80608            1800       0.015      0          0          0          0         
8100             81009            81309            5100       0.015      0          0          0          0         

[OUTLETS]
;;Name           From Node        To Node          Offset     Type             QTable/Qcoeff    Qexpon     Gated   
;;-------------- ---------------- ---------------- ---------- ---------------- ---------------- ---------- --------
1030             10309            10208            0          TABULAR/HEAD     Outlet_head                 NO      
1600             16109            16009            0          FUNCTIONAL/HEAD  10               0.5        NO      
8060             80608            82309            0          FUNCTIONAL/DEPTH 10               0.5        NO      
8130             81309            15009            0          TABULAR/DEPTH    Outlet_head                 NO      

[XSECTIONS]
;;Link           Shape        Geom1            Geom2      Geom3      Geom4      Barrels    Culvert   
;;-------------- ------------ ---------------- ---------- ---------- ---------- ---------- ----------
1570             CIRCULAR     5.5              0          0          0          1                    
1602             CIRCULAR     1                0          0          0          1                    
1630             CIRCULAR     1                0          0          0          1                    
8040             CIRCULAR     4                0          0          0          1                    
8100             CIRCULAR     4.5              0          0          0          1                    

[LOSSES]
;;Link           Kentry     Kexit      Kavg       Flap Gate  Seepage   
;;-------------- ---------- ---------- ---------- ---------- ----------

[INFLOWS]
;;Node           Constituent      Time Series      Type     Mfactor  Sfactor  Baseline Pattern
;;-------------- ---------------- ---------------- -------- -------- -------- -------- --------
80408            FLOW             80408            FLOW     1.0      1.0                       
81009            FLOW             81009            FLOW     1.0      1.0                       
82309            FLOW             82309            FLOW     1.0      1.0                       

[CURVES]
;;Name           Type       X-Value    Y-Value   
;;-------------- ---------- ---------- ----------
Outlet_head      Rating     0          0         
Outlet_head                 100        100       

[TIMESERIES]
;;Name           Date       Time       Value     
;;-------------- ---------- ---------- ----------
80408                       0          0         
80408                       0.25       45        
80408                       3.0        45        
80408                       3.25       0         
80408                       12         0         

81009                       0          0         
81009                       0.25       50        
81009                       3.0        50        
81009                       3.25       0         
81009                       12         0         

;-------------------------------------------------
82309                       0          0         
82309                       0.25       40        
82309                       3.0        40        
82309                       3.25       0         
82309                       12.0       0         

[REPORT]
;;Reporting Options
INPUT      YES
CONTROLS   NO
SUBCATCHMENTS ALL
NODES ALL
LINKS ALL

[TAGS]

[MAP]
DIMENSIONS       -1124.187        2165.2605        10651.027        7792.6295       
UNITS            None

[COORDINATES]
;;Node           X-Coord            Y-Coord           
;;-------------- ------------------ ------------------
10309            389.47             2421.05           
15009            4978.95            2421.05           
16009            2494.74            2421.05           
16109            2494.74            7536.84           
80408            10115.79           7536.84           
80608            7463.16            7536.84           
81009            9989.47            2421.05           
81309            7568.42            2421.05           
82309            4957.89            7536.84           
10208            -578.95            4947.37           

[VERTICES]
;;Link           X-Coord            Y-Coord           
;;-------------- ------------------ ------------------

[POLYGONS]

[LABELS]
;;X-Coord        Y-Coord          Label           
2431.58          1052.63          "EXAMPLE 1 OF EXTRAN MANUAL"  "Arial" 12 1 1
9821.05          7157.89          "Inflow"  "Arial" 10 0 0
4663.16          7200             "Inflow"  "Arial" 10 0 0
9694.74          2084.21          "Inflow"  "Arial" 10 0 0

