[TITLE]
;;Project Title/Notes
SWMM is the best!

[OPTIONS]
;;Option             Value
FLOW_UNITS           CFS
INFILTRATION         GREEN_AMPT
FLOW_ROUTING         DYNWAVE
LINK_OFFSETS         DEPTH
MIN_SLOPE            0
ALLOW_PONDING        YES
SKIP_STEADY_STATE    YES

START_DATE           01/01/1900
START_TIME           00:00:00
REPORT_START_DATE    01/01/1900
REPORT_START_TIME    00:00:00
END_DATE             01/02/1900
END_TIME             00:00:00
SWEEP_START          01/01
SWEEP_END            12/31
DRY_DAYS             0.000000
REPORT_STEP          00:05:00
WET_STEP             00:05:00
DRY_STEP             01:00:00
ROUTING_STEP         15
RULE_STEP            00:00:00

INERTIAL_DAMPING     NONE
NORMAL_FLOW_LIMITED  BOTH
FORCE_MAIN_EQUATION  H-W
VARIABLE_STEP        0.75
LENGTHENING_STEP     10
MIN_SURFAREA         25.000000
MAX_TRIALS           10
HEAD_TOLERANCE       0.005000
SYS_FLOW_TOL         5
LAT_FLOW_TOL         5
MINIMUM_STEP         0.5
THREADS              4

[EVAPORATION]
;;Data Source    Parameters
;;-------------- ----------------
CONSTANT         0.0
DRY_ONLY         NO

[TEMPERATURE]
TIMESERIES   Temp
WINDSPEED    MONTHLY    8.900000 11.400000 9.900000 9.800000 8.700000 8.000000 7.300000 7.000000 7.300000 7.800000 8.400000 8.700000
SNOWMELT               34.000000 0.500000 0.600000 20.000000 41.599998 -4.000000
ADC          IMPERVIOUS 1.0 1.0 1.0 1.0 1.0 1.0 1.0 1.0 1.0 1.0
ADC          PERVIOUS   1.0 1.0 1.0 1.0 1.0 1.0 1.0 1.0 1.0 1.0

[RAINGAGES]
;;Name           Format    Interval SCF      Source    
;;-------------- --------- -------- -------- ----------
;fake raingage for testing swmm.pandas
RG1              VOLUME    0:05     1.0      FILE             rain.dat RG1        IN   
RainGauge_A      VOLUME    0:05     1.0      TIMESERIES       SCS_Type_III_3in 
RainGauge_B      VOLUME    0:05     1.0      TIMESERIES       SCS_Type_III_3in
RainGauge_C      VOLUME    0:05     1.0      TIMESERIES       SCS_Type_III_3in
SCS_Type_III_3in VOLUME    0:15     1.0      TIMESERIES       SCS_Type_III_3in

[SUBCATCHMENTS]
;;Name           Rain Gage        Outlet           Area     %Imperv  Width    %Slope   CurbLen  SnowPack        
;;-------------- ---------------- ---------------- -------- -------- -------- -------- -------- ----------------
SUB1             SCS_Type_III_3in JUNC1            5        30.83    1866.756 0.5      0        SNOW1           
SUB2             SCS_Type_III_3in JUNC2            17       40.74    4174.201 0.5      0        SNOW1           
SUB3             SCS_Type_III_3in JUNC4            38       62.21    5665.003 0.5      0        SNOW1           

[SUBAREAS]
;;Subcatchment   N-Imperv   N-Perv     S-Imperv   S-Perv     PctZero    RouteTo    PctRouted 
;;-------------- ---------- ---------- ---------- ---------- ---------- ---------- ----------
SUB1             0.05       0.2        0.05       0.1        25         PERVIOUS   50        
SUB2             0.05       0.2        0.05       0.1        25         PERVIOUS   50        
SUB3             0.05       0.2        0.05       0.1        25         PERVIOUS   50        

[INFILTRATION]
;;Subcatchment   Param1     Param2     Param3     Param4     Param5    
;;-------------- ---------- ---------- ---------- ---------- ----------
SUB1             4.3        0.86       0.23
SUB2             4.3        0.86       0.23                             MODIFIED_GREEN_AMPT
SUB3             4.3        0.86       0.23       0.04       2          HORTON

[AQUIFERS]
;;Name           Por    WP     FC     Ksat   Kslope Tslope ETu    ETs    Seep   Ebot   Egw    Umc    ETupat 
;;-------------- ------ ------ ------ ------ ------ ------ ------ ------ ------ ------ ------ ------ ------
SUB1             0.46   0.13   0.28   0.8    5      20     0.7    10     0      -39.3  1.5    0.23         
SUB2             0.46   0.13   0.28   0.8    5      20     0.7    10     0      -36.75 4.5    0.23         
SUB3             0.46   0.13   0.28   0.8    5      20     0.7    10     0      -4.53  36.57  0.23         

[GROUNDWATER]
;;Subcatchment   Aquifer          Node             Esurf  A1     B1     A2     B2     A3     Dsw    Egwt   Ebot   Wgr    Umc   
;;-------------- ---------------- ---------------- ------ ------ ------ ------ ------ ------ ------ ------ ------ ------ ------
SUB1             SUB1             JUNC1            10.7   0.001  1.5    0      0      0      0      *      -39.3  2.521  0.276 
SUB2             SUB2             JUNC2            5.16   0.001  1.5    0      0      0      0      *      -44.84 -0.029 0.275 
SUB3             SUB3             JUNC4            8.55   0.001  1.5    0      0      0      0      *      -41.45 -3.616 0.279 

[GWF]
;;Subcatchment   Flow    Equation
;;-------------- ------- --------
SUB1             LATERAL 0.001*Hgw + 0.05*(Hgw-5)*STEP(Hgw-5)
SUB2             DEEP    0.002

[SNOWPACKS]
;;Name           Surface    Parameters
;;-------------- ---------- ----------
SNOW1            PLOWABLE   0.005000   0.007000   24.000000  0.200000   0.000000   0.000000   0.100000  
SNOW1            IMPERVIOUS 0.005000   0.007000   24.000000  0.200000   0.000000   0.000000   2.000000  
SNOW1            PERVIOUS   0.004000   0.004000   25.000000  0.200000   0.000000   0.000000   2.000000  
SNOW1            REMOVAL    0.000000   0          0          1          0.000000   0.000000   

[JUNCTIONS]
;;Name           Elevation  MaxDepth   InitDepth  SurDepth   Aponded   
;;-------------- ---------- ---------- ---------- ---------- ----------
JUNC1            1.5        10.25      0          0          5000      
JUNC2            -1.04      6.2        0          0          5000      
JUNC3            -3.47      11.5       0          0          5000      
JUNC4            -5.25      13.8       0          0          5000      
JUNC6            0          9          0          200        0         

[OUTFALLS]
;;Name           Elevation  Type       Stage Data       Gated    Route To        
;;-------------- ---------- ---------- ---------------- -------- ----------------
OUT1             0.1        FREE                        NO                       
OUT2             -1.04      FREE                        NO                       
OUT3             0          TIMESERIES head_series      YES      SUB1            

[STORAGE]
;;Name           Elev.    MaxDepth   InitDepth  Shape       Curve Name/Params            SurDepth Fevap    Psi      Ksat     IMD     
;;-------------- -------- ---------- ---------- ----------- ---------------------------- -------- -------- -------- -------- --------
JUNC5            -6.5     13.2       0          TABULAR     Store1                       0        2        2        2        0.5     
STOR1            -15.25   21.75      0          FUNCTIONAL  413       1         2        10       3       

[CONDUITS]
;;Name           From Node        To Node          Length     Roughness  InOffset   OutOffset  InitFlow   MaxFlow   
;;-------------- ---------------- ---------------- ---------- ---------- ---------- ---------- ---------- ----------
COND1            JUNC1            JUNC2            932.363    0.015      0          0.25       0          0         
;cond2 comment
COND2            JUNC2            JUNC3            599.52     0.019      0          0.25       0          0         
COND3            JUNC3            JUNC4            541.1      0.019      0          0.5        0          0         
COND4            JUNC4            JUNC5            732.48     0.019      0          0          0          0         
COND5            JUNC5            STOR1            64.72      0.019      0          8.74       0          0         
COND6            JUNC6            OUT1             37.72      0.015      0          0          0          0         
COND7            JUNC5            STOR1             37.72      0.015      0          0          0          0         
COND8            JUNC5            STOR1             37.72      0.015      0          0          0          0         

[PUMPS]
;;Name           From Node        To Node          Pump Curve       Status   Startup  Shutoff 
;;-------------- ---------------- ---------------- ---------------- -------- -------- --------
PUMP1            STOR1            JUNC6            P1               ON       1.3      0.3     

[WEIRS]
;;Name           From Node        To Node          Type         CrestHt    Qcoeff     Gated    EndCon   EndCoeff   Surcharge  RoadWidth  RoadSurf   Coeff. Curve
;;-------------- ---------------- ---------------- ------------ ---------- ---------- -------- -------- ---------- ---------- ---------- ---------- ----------------
WR1              JUNC2            OUT2             TRANSVERSE   3          3.33       NO       0        0          YES       

[XSECTIONS]
;;Link           Shape        Geom1            Geom2       Geom3      Geom4      Barrels    Culvert   
;;-------------- ------------ ---------------- ----------  ---------- ---------- ---------- ----------
COND1            CIRCULAR     1                0           0          0          1          0         
COND2            FILLED_CIRCULAR 1.25          0.5         0          0          1          0         
COND3            FILLED_CIRCULAR 1.5           0.5         0          0          1          0         
COND4            FILLED_CIRCULAR 2             0.5         0          0          1          0         
COND5            FILLED_CIRCULAR 2             1           0          0          1          0         
COND6            FORCE_MAIN   1                130         0          0          1          0         
COND7            CUSTOM       10               COND7_curve 0          0          2
COND8            IRREGULAR    Transect
WR1              RECT_OPEN    3.2              3           0          0         

[TRANSECTS]
;;Transect Data in HEC-2 format
;
NC 0.01     0.01     0.01    
X1 Transect          3        0.0      0.0      0.0      0.0      0.0      0.0      0.0     
GR 2        1        1        2        2        3       

[LOSSES]
;;Link           Kentry     Kexit      Kavg       Flap Gate  Seepage   
;;-------------- ---------- ---------- ---------- ---------- ----------
COND1            1          2          3          NO         4
COND2            0          0          0          YES        0

[POLLUTANTS]
;;Name           Units  Crain      Cgw        Crdii      Kdecay     SnowOnly   Co-Pollutant     Co-Frac    Cdwf       Cinit     
;;-------------- ------ ---------- ---------- ---------- ---------- ---------- ---------------- ---------- ---------- ----------
Groundwater      MG/L   0          100        0          0          NO         *                0.0        0          0         
Rainfall         MG/L   100        0          0          0          NO         *                0.0        0          0         
Sewage           MG/L   0          0          0          0          NO         *                0.0        100        0         

[LOADINGS]
;;Subcatchment   Pollutant        Buildup   
;;-------------- ---------------- ----------
SUB1             Rainfall         1
SUB2             Rainfall         1.4
SUB3             Rainfall         1.1

[TREATMENT]
;;Node           Pollutant        Function   
;;-------------- ---------------- ----------
STOR1            Rainfall         C = Rainfall * exp(-0.05*HRT)
;groundwater removed with rainfall
STOR1            Groundwater      R = 0.2 * R_Rainfall

[INFLOWS]
;;Node          	Constituent     	Time Series     	Type    	Mfactor 	Sfactor 	Baseline	Pattern
;;--------------	----------------	----------------	--------	--------	--------	--------	--------
JUNC1           	FLOW            	inflow_series       FLOW    	1.0     	1.0     	0.25        HOURLY       
JUNC2           	FLOW            	""                  FLOW    	1.0     	1.0     	10
JUNC3               Sewage              ""                  CONCEN      1.0         1.0         100   

[DWF]
;;Node           Constituent      Baseline   Patterns  
;;-------------- ---------------- ---------- ----------
JUNC2            FLOW             0.2        "HOURLY" "" "" ""
JUNC4            FLOW             0.7        "HOURLY" "" "" ""

[HYDROGRAPHS]
;;Hydrograph     Rain Gage/Month  Response R        T        K        Dmax     Drecov   Dinit   
;;-------------- ---------------- -------- -------- -------- -------- -------- -------- --------
HydrA            RainGauge_A     
HydrA            Jan              Short    0.01     2.5      0.05     0        0        0       
HydrA            Jan              Medium   0.005    4        15       0        0        0       
HydrA            Jan              Long     0.1      17       15       0        0        0       
HydrA            Feb              Short    0.007785 2.375    0.1475   0        0        0       
HydrA            Feb              Medium   0.004075 4.25     13.125   0        0        0       
HydrA            Feb              Long     0.07575  14.875   16.125   0        0        0       
HydrA            Mar              Short    0.00557  2.25     0.245    0        0        0       
HydrA            Mar              Medium   0.00315  4.5      11.25    0        0        0       
HydrA            Mar              Long     0.0515   12.75    17.25    0        0        0       
HydrA            Apr              Short    0.003355 2.125    0.3425   0        0        0       
HydrA            Apr              Medium   0.002225 4.75     9.375    0        0        0       
HydrA            Apr              Long     0.02725  10.625   18.375   0        0        0       
HydrA            May              Short    0.00114  2        0.44     0        0        0       
HydrA            May              Medium   0.0013   5        7.5      0        0        0       
HydrA            May              Long     0.003    8.5      19.5     0        0        0       
HydrA            Jun              Short    0.003    2.983333 0.5      0        0        0       
HydrA            Jun              Medium   0.01     6.333333 7        0        0        0       
HydrA            Jun              Long     0.005733 9.666666 14.33333 0        0        0       
HydrA            Jul              Short    0.002283 2.983333 0.293333 0        0        0       
HydrA            Jul              Medium   0.0058   6.333333 7        0        0        0       
HydrA            Jul              Long     0.005733 9.666666 14.33333 0        0        0       
HydrA            Aug              Short    0.001566 2.983333 0.086666 0        0        0       
HydrA            Aug              Medium   0.0016   6.333333 7        0        0        0       
HydrA            Aug              Long     0.005733 6.333333 14.33333 0        0        0       
HydrA            Sep              Short    0.004783 2.2416665 0.212083 0        0        0       
HydrA            Sep              Medium   0.001275 4.7916665 5.625    0        0        0       
HydrA            Sep              Long     0.0033915 8.083333 13.541665 0        0        0       
HydrA            Oct              Short    0.008    1.5      0.3375   0        0        0       
HydrA            Oct              Medium   0.00095  3.25     4.25     0        0        0       
HydrA            Oct              Long     0.00105  6.5      12.75    0        0        0       
HydrA            Nov              Short    0.014    2        0.66875  0        0        0       
HydrA            Nov              Medium   0.002975 3.625    9.625    0        0        0       
HydrA            Nov              Long     0.050525 11.75    13.875   0        0        0       
HydrA            Dec              Short    0.02     2.5      1        0        0        0       
HydrA            Dec              Medium   0.005    4        15       0        0        0       
HydrA            Dec              Long     0.1      17       15       0        0        0       
HydrB            RainGauge_B     
HydrB            Jan              Short    0.005    0.575    0.825    0        0        0       
HydrB            Jan              Medium   0.01     5.5      7.275    0        0        0       
HydrB            Jan              Long     0.003125 7        17       0        0        0       
HydrB            Feb              Short    0.003875 0.63125  0.9354165 0        0        0       
HydrB            Feb              Medium   0.00845825 5.19833325 7.38125  0        0        0       
HydrB            Feb              Long     0.00734375 7.08333325 21.166665 0        0        0       
HydrB            Mar              Short    0.00275  0.6875   1.045833 0        0        0       
HydrB            Mar              Medium   0.0069165 4.8966665 7.4875   0        0        0       
HydrB            Mar              Long     0.0115625 7.1666665 25.33333 0        0        0       
HydrB            Apr              Short    0.001625 0.74375  1.1562495 0        0        0       
HydrB            Apr              Medium   0.00537475 4.59499975 7.59375  0        0        0       
HydrB            Apr              Long     0.01578125 7.24999975 29.499995 0        0        0       
HydrB            May              Short    0.0005   0.8      1.266666 0        0        0       
HydrB            May              Medium   0.003833 4.293333 7.7      0        0        0       
HydrB            May              Long     0.02     7.333333 33.66666 0        0        0       
HydrB            Jun              Short    0.001366 0.7      1.033333 0        0        0       
HydrB            Jun              Medium   0.001166 5        6.8      0        0        0       
HydrB            Jun              Long     0.006    8        28.33333 0        0        0       
HydrB            Jul              Short    0.001366 0.7      1.033333 0        0        0       
HydrB            Jul              Medium   0.001166 5        6.8      0        0        0       
HydrB            Jul              Long     0.006    8        28.33333 0        0        0       
HydrB            Aug              Short    0.001366 0.7      1.033333 0        0        0       
HydrB            Aug              Medium   0.001166 5        6.8      0        0        0       
HydrB            Aug              Long     0.006    8        28.33333 0        0        0       
HydrB            Sep              Short    0.001933 0.5      1.2166665 0        0        0       
HydrB            Sep              Medium   0.001533 3.75     12.65    0        0        0       
HydrB            Sep              Long     0.00305  10.75    24.166665 0        0        0       
HydrB            Oct              Short    0.0025   0.3      1.4      0        0        0       
HydrB            Oct              Medium   0.0019   2.5      18.5     0        0        0       
HydrB            Oct              Long     0.0001   13.5     20       0        0        0       
HydrB            Nov              Short    0.00275  0.4375   1.1125   0        0        0       
HydrB            Nov              Medium   0.00345  4        12.8875  0        0        0       
HydrB            Nov              Long     0.0016125 10.25    18.5     0        0        0       
HydrB            Dec              Short    0.003    0.575    0.825    0        0        0       
HydrB            Dec              Medium   0.005    5.5      7.275    0        0        0       
HydrB            Dec              Long     0.003125 7        17       0        0        0       
HydrC            RainGauge_C                
HydrC            All              Short    0.005    0.575    0.825    0        0        0       
HydrC            All              Medium   0.01     5.5      7.275    0        0        0       
HydrC            All              Long     0.003125 7        17       0        0        0       

[RDII]
;;Node           Unit Hydrograph  Sewer Area
;;-------------- ---------------- ----------
JUNC1            HydrC            10
JUNC2            HydrA            10.2
;this rdii has high precision
JUNC3            HydrB            5.213837

[CURVES]
;;Name           Type       X-Value    Y-Value   
;;-------------- ---------- ---------- ----------
P1               Pump5      0          0         
P1                          7          5.8       

Store1           Storage    1          20     2          30
Store1                      3          40        

COND7_curve       Shape      0.1        2         
COND7_curve                  0.2        5         
COND7_curve                  0.5        10        
COND7_curve                  1          10

[TIMESERIES]
;;Name           Date       Time       Value     
;;-------------- ---------- ---------- ----------
;SCS_Type_III_1in design storm, total rainfall = 1 in, rain interval = 6 minutes, rain units = in.
SCS_Type_III_1in            0:00       0.001     
SCS_Type_III_1in            0:06       0.001     
SCS_Type_III_1in            0:12       0.001     
SCS_Type_III_1in            0:18       0.001     
SCS_Type_III_1in            0:24       0.001     
SCS_Type_III_1in            0:30       0.001     
SCS_Type_III_1in            0:36       0.001     
SCS_Type_III_1in            0:42       0.001     
SCS_Type_III_1in            0:48       0.001     
SCS_Type_III_1in            0:54       0.001     
SCS_Type_III_1in            1:00       0.001     
SCS_Type_III_1in            1:06       0.001     
SCS_Type_III_1in            1:12       0.001     
SCS_Type_III_1in            1:18       0.001     
SCS_Type_III_1in            1:24       0.001     
SCS_Type_III_1in            1:30       0.001     
SCS_Type_III_1in            1:36       0.001     
SCS_Type_III_1in            1:42       0.001     
SCS_Type_III_1in            1:48       0.001     
SCS_Type_III_1in            1:54       0.001     
SCS_Type_III_1in 01/01/2014 2:00       0.00101   
SCS_Type_III_1in            2:06       0.00102   
SCS_Type_III_1in            2:12       0.00104   
SCS_Type_III_1in            2:18       0.00105   
SCS_Type_III_1in            2:24       0.00107   
SCS_Type_III_1in            2:30       0.00108   
SCS_Type_III_1in            2:36       0.0011    
SCS_Type_III_1in            2:42       0.00111   
SCS_Type_III_1in            2:48       0.00113   
SCS_Type_III_1in            2:54       0.00114   
SCS_Type_III_1in            3:00       0.00116   
SCS_Type_III_1in            3:06       0.00117   
SCS_Type_III_1in            3:12       0.00119   
SCS_Type_III_1in            3:18       0.0012    
SCS_Type_III_1in            3:24       0.00122   
SCS_Type_III_1in            3:30       0.00123   
SCS_Type_III_1in            3:36       0.00125   
SCS_Type_III_1in            3:42       0.00126   
SCS_Type_III_1in            3:48       0.00128   
SCS_Type_III_1in            3:54       0.00129   
SCS_Type_III_1in            4:00       0.00131   
SCS_Type_III_1in            4:06       0.00132   
SCS_Type_III_1in            4:12       0.00134   
SCS_Type_III_1in            4:18       0.00135   
SCS_Type_III_1in            4:24       0.00137   
SCS_Type_III_1in            4:30       0.00138   
SCS_Type_III_1in            4:36       0.0014    
SCS_Type_III_1in            4:42       0.00141   
SCS_Type_III_1in            4:48       0.00143   
SCS_Type_III_1in            4:54       0.00144   
SCS_Type_III_1in            5:00       0.00146   
SCS_Type_III_1in            5:06       0.00147   
SCS_Type_III_1in            5:12       0.00149   
SCS_Type_III_1in            5:18       0.0015    
SCS_Type_III_1in            5:24       0.00152   
SCS_Type_III_1in            5:30       0.00153   
SCS_Type_III_1in            5:36       0.00155   
SCS_Type_III_1in            5:42       0.00156   
SCS_Type_III_1in            5:48       0.00158   
SCS_Type_III_1in            5:54       0.00159   
SCS_Type_III_1in            6:00       0.00163   
SCS_Type_III_1in            6:06       0.00167   
SCS_Type_III_1in            6:12       0.00173   
SCS_Type_III_1in            6:18       0.00177   
SCS_Type_III_1in            6:24       0.00183   
SCS_Type_III_1in            6:30       0.00187   
SCS_Type_III_1in            6:36       0.00193   
SCS_Type_III_1in            6:42       0.00197   
SCS_Type_III_1in            6:48       0.00203   
SCS_Type_III_1in            6:54       0.00207   
SCS_Type_III_1in            7:00       0.00213   
SCS_Type_III_1in            7:06       0.00217   
SCS_Type_III_1in            7:12       0.00223   
SCS_Type_III_1in            7:18       0.00227   
SCS_Type_III_1in            7:24       0.00233   
SCS_Type_III_1in            7:30       0.00237   
SCS_Type_III_1in            7:36       0.00243   
SCS_Type_III_1in            7:42       0.00247   
SCS_Type_III_1in            7:48       0.00253   
SCS_Type_III_1in            7:54       0.00257   
SCS_Type_III_1in            8:00       0.00266   
SCS_Type_III_1in            8:06       0.00277   
SCS_Type_III_1in            8:12       0.00289   
SCS_Type_III_1in            8:18       0.003     
SCS_Type_III_1in            8:24       0.00312   
SCS_Type_III_1in            8:30       0.00323   
SCS_Type_III_1in            8:36       0.00335   
SCS_Type_III_1in            8:42       0.00346   
SCS_Type_III_1in            8:48       0.00358   
SCS_Type_III_1in            8:54       0.00369   
SCS_Type_III_1in            9:00       0.00381   
SCS_Type_III_1in            9:06       0.00392   
SCS_Type_III_1in            9:12       0.00404   
SCS_Type_III_1in            9:18       0.00415   
SCS_Type_III_1in            9:24       0.00427   
SCS_Type_III_1in            9:30       0.00438   
SCS_Type_III_1in            9:36       0.0045    
SCS_Type_III_1in            9:42       0.00461   
SCS_Type_III_1in            9:48       0.00473   
SCS_Type_III_1in            9:54       0.00484   
SCS_Type_III_1in            10:00      0.00502   
SCS_Type_III_1in            10:06      0.00526   
SCS_Type_III_1in            10:12      0.0055    
SCS_Type_III_1in            10:18      0.00574   
SCS_Type_III_1in            10:24      0.00598   
SCS_Type_III_1in            10:30      0.00622   
SCS_Type_III_1in            10:36      0.00646   
SCS_Type_III_1in            10:42      0.0067    
SCS_Type_III_1in            10:48      0.00694   
SCS_Type_III_1in            10:54      0.00718   
SCS_Type_III_1in            11:00      0.00776   
SCS_Type_III_1in            11:06      0.00868   
SCS_Type_III_1in            11:12      0.0096    
SCS_Type_III_1in            11:18      0.01052   
SCS_Type_III_1in            11:24      0.01144   
SCS_Type_III_1in            11:30      0.0163    
SCS_Type_III_1in            11:36      0.0251    
SCS_Type_III_1in            11:42      0.0339    
SCS_Type_III_1in            11:48      0.0427    
SCS_Type_III_1in            11:54      0.084     
SCS_Type_III_1in            12:00      0.084     
SCS_Type_III_1in            12:06      0.0427    
SCS_Type_III_1in            12:12      0.0339    
SCS_Type_III_1in            12:18      0.0251    
SCS_Type_III_1in            12:24      0.0163    
SCS_Type_III_1in            12:30      0.01144   
SCS_Type_III_1in            12:36      0.01052   
SCS_Type_III_1in            12:42      0.0096    
SCS_Type_III_1in            12:48      0.00868   
SCS_Type_III_1in            12:54      0.00776   
SCS_Type_III_1in            13:00      0.00718   
SCS_Type_III_1in            13:06      0.00694   
SCS_Type_III_1in            13:12      0.0067    
SCS_Type_III_1in            13:18      0.00646   
SCS_Type_III_1in            13:24      0.00622   
SCS_Type_III_1in            13:30      0.00598   
SCS_Type_III_1in            13:36      0.00574   
SCS_Type_III_1in            13:42      0.0055    
SCS_Type_III_1in            13:48      0.00526   
SCS_Type_III_1in            13:54      0.00502   
SCS_Type_III_1in            14:00      0.00484   
SCS_Type_III_1in            14:06      0.00473   
SCS_Type_III_1in            14:12      0.00461   
SCS_Type_III_1in            14:18      0.0045    
SCS_Type_III_1in            14:24      0.00438   
SCS_Type_III_1in            14:30      0.00427   
SCS_Type_III_1in            14:36      0.00415   
SCS_Type_III_1in            14:42      0.00404   
SCS_Type_III_1in            14:48      0.00392   
SCS_Type_III_1in            14:54      0.00381   
SCS_Type_III_1in            15:00      0.00369   
SCS_Type_III_1in            15:06      0.00358   
SCS_Type_III_1in            15:12      0.00346   
SCS_Type_III_1in            15:18      0.00335   
SCS_Type_III_1in            15:24      0.00323   
SCS_Type_III_1in            15:30      0.00312   
SCS_Type_III_1in            15:36      0.003     
SCS_Type_III_1in            15:42      0.00289   
SCS_Type_III_1in            15:48      0.00277   
SCS_Type_III_1in            15:54      0.00266   
SCS_Type_III_1in            16:00      0.00258   
SCS_Type_III_1in            16:06      0.00252   
SCS_Type_III_1in            16:12      0.00248   
SCS_Type_III_1in            16:18      0.00242   
SCS_Type_III_1in            16:24      0.00238   
SCS_Type_III_1in            16:30      0.00232   
SCS_Type_III_1in            16:36      0.00228   
SCS_Type_III_1in            16:42      0.00222   
SCS_Type_III_1in            16:48      0.00218   
SCS_Type_III_1in            16:54      0.00212   
SCS_Type_III_1in            17:00      0.00208   
SCS_Type_III_1in            17:06      0.00202   
SCS_Type_III_1in            17:12      0.00198   